90476173
  -OEChem-10121608453D

 56 59  0     1  0  0  0  0  0999 V2000
   -4.4876   -0.2362   -1.0391 O   0  0  0  0  0  0  0  0  0  0  0  0
    0.2729    0.5664   -2.6269 O   0  0  0  0  0  0  0  0  0  0  0  0
   -3.4323    0.5360    2.1210 O   0  0  0  0  0  0  0  0  0  0  0  0
   -4.5849    2.8773    1.4819 O   0  0  0  0  0  0  0  0  0  0  0  0
    5.9826    1.1686    1.4689 O   0  0  0  0  0  0  0  0  0  0  0  0
   -2.0279   -0.3283   -0.7323 C   0  0  1  0  0  0  0  0  0  0  0  0
   -1.2044   -1.0305    0.3646 C   0  0  2  0  0  0  0  0  0  0  0  0
    0.2714   -1.2303   -0.0121 C   0  0  1  0  0  0  0  0  0  0  0  0
    0.9169    0.1687   -0.2811 C   0  0  1  0  0  0  0  0  0  0  0  0
   -3.4421   -0.3698   -0.0901 C   0  0  2  0  0  0  0  0  0  0  0  0
   -1.4189    1.0690   -0.9685 C   0  0  0  0  0  0  0  0  0  0  0  0
    2.4722    0.0850   -0.5683 C   0  0  2  0  0  0  0  0  0  0  0  0
    0.0914    1.0233   -1.2942 C   0  0  2  0  0  0  0  0  0  0  0  0
   -2.0502   -2.2525    0.7130 C   0  0  0  0  0  0  0  0  0  0  0  0
   -3.5059   -1.7576    0.5896 C   0  0  0  0  0  0  0  0  0  0  0  0
    1.0163   -1.9543    1.1205 C   0  0  0  0  0  0  0  0  0  0  0  0
   -2.0722   -1.1153   -2.0743 C   0  0  0  0  0  0  0  0  0  0  0  0
    3.1415   -0.7607    0.5236 C   0  0  0  0  0  0  0  0  0  0  0  0
    2.5015   -2.0941    0.8233 C   0  0  0  0  0  0  0  0  0  0  0  0
    3.0447    1.5323   -0.5459 C   0  0  0  0  0  0  0  0  0  0  0  0
    2.8161   -0.5698   -1.9253 C   0  0  0  0  0  0  0  0  0  0  0  0
   -3.7256    0.6956    0.9371 C   0  0  0  0  0  0  0  0  0  0  0  0
    4.5580    1.5859   -0.4102 C   0  0  0  0  0  0  0  0  0  0  0  0
    4.2566   -0.3989    1.1798 C   0  0  0  0  0  0  0  0  0  0  0  0
    4.9965    0.8315    0.8170 C   0  0  0  0  0  0  0  0  0  0  0  0
   -4.3864    1.9589    0.4280 C   0  0  0  0  0  0  0  0  0  0  0  0
   -1.2020   -0.3939    1.2632 H   0  0  0  0  0  0  0  0  0  0  0  0
    0.3452   -1.8519   -0.9103 H   0  0  0  0  0  0  0  0  0  0  0  0
    0.8223    0.7109    0.6753 H   0  0  0  0  0  0  0  0  0  0  0  0
   -1.5263    1.6811   -0.0653 H   0  0  0  0  0  0  0  0  0  0  0  0
   -1.9615    1.5793   -1.7733 H   0  0  0  0  0  0  0  0  0  0  0  0
    0.4606    2.0547   -1.2685 H   0  0  0  0  0  0  0  0  0  0  0  0
   -1.8442   -2.6175    1.7244 H   0  0  0  0  0  0  0  0  0  0  0  0
   -1.8664   -3.0796    0.0182 H   0  0  0  0  0  0  0  0  0  0  0  0
   -4.0824   -2.4686   -0.0151 H   0  0  0  0  0  0  0  0  0  0  0  0
   -3.9887   -1.7424    1.5730 H   0  0  0  0  0  0  0  0  0  0  0  0
    0.5934   -2.9549    1.2686 H   0  0  0  0  0  0  0  0  0  0  0  0
    0.8829   -1.4117    2.0657 H   0  0  0  0  0  0  0  0  0  0  0  0
   -2.6448   -2.0455   -1.9943 H   0  0  0  0  0  0  0  0  0  0  0  0
   -1.0843   -1.4004   -2.4403 H   0  0  0  0  0  0  0  0  0  0  0  0
   -2.5479   -0.5162   -2.8594 H   0  0  0  0  0  0  0  0  0  0  0  0
    2.6435   -2.7609   -0.0360 H   0  0  0  0  0  0  0  0  0  0  0  0
    2.9859   -2.5863    1.6757 H   0  0  0  0  0  0  0  0  0  0  0  0
    2.7548    2.0768   -1.4527 H   1  0  0  0  0  0  0  0  0  0  0  0
    2.6106    2.0850    0.2992 H   0  0  0  0  0  0  0  0  0  0  0  0
    2.6366    0.1091   -2.7647 H   0  0  0  0  0  0  0  0  0  0  0  0
    2.2386   -1.4821   -2.1035 H   0  0  0  0  0  0  0  0  0  0  0  0
    3.8757   -0.8485   -1.9804 H   0  0  0  0  0  0  0  0  0  0  0  0
   -4.2634    0.4890   -1.6467 H   0  0  0  0  0  0  0  0  0  0  0  0
    5.0612    1.1612   -1.2846 H   1  0  0  0  0  0  0  0  0  0  0  0
    4.8732    2.6302   -0.3083 H   0  0  0  0  0  0  0  0  0  0  0  0
   -0.2190    1.1639   -3.2153 H   0  0  0  0  0  0  0  0  0  0  0  0
    4.6940   -1.0204    1.9540 H   0  0  0  0  0  0  0  0  0  0  0  0
   -5.3730    1.7222    0.0209 H   0  0  0  0  0  0  0  0  0  0  0  0
   -3.7669    2.4347   -0.3342 H   0  0  0  0  0  0  0  0  0  0  0  0
   -5.0197    3.6607    1.1041 H   0  0  0  0  0  0  0  0  0  0  0  0
  1 10  1  0  0  0  0
  1 49  1  0  0  0  0
  2 13  1  0  0  0  0
  2 52  1  0  0  0  0
  3 22  2  0  0  0  0
  4 26  1  0  0  0  0
  4 56  1  0  0  0  0
  5 25  2  0  0  0  0
  6  7  1  0  0  0  0
  6 10  1  0  0  0  0
  6 11  1  0  0  0  0
  6 17  1  0  0  0  0
  7  8  1  0  0  0  0
  7 14  1  0  0  0  0
  7 27  1  0  0  0  0
  8  9  1  0  0  0  0
  8 16  1  0  0  0  0
  8 28  1  0  0  0  0
  9 12  1  0  0  0  0
  9 13  1  0  0  0  0
  9 29  1  0  0  0  0
 10 15  1  0  0  0  0
 10 22  1  0  0  0  0
 11 13  1  0  0  0  0
 11 30  1  0  0  0  0
 11 31  1  0  0  0  0
 12 18  1  0  0  0  0
 12 20  1  0  0  0  0
 12 21  1  0  0  0  0
 13 32  1  0  0  0  0
 14 15  1  0  0  0  0
 14 33  1  0  0  0  0
 14 34  1  0  0  0  0
 15 35  1  0  0  0  0
 15 36  1  0  0  0  0
 16 19  1  0  0  0  0
 16 37  1  0  0  0  0
 16 38  1  0  0  0  0
 17 39  1  0  0  0  0
 17 40  1  0  0  0  0
 17 41  1  0  0  0  0
 18 19  1  0  0  0  0
 18 24  2  0  0  0  0
 19 42  1  0  0  0  0
 19 43  1  0  0  0  0
 20 23  1  0  0  0  0
 20 44  1  0  0  0  0
 20 45  1  0  0  0  0
 21 46  1  0  0  0  0
 21 47  1  0  0  0  0
 21 48  1  0  0  0  0
 22 26  1  0  0  0  0
 23 25  1  0  0  0  0
 23 50  1  0  0  0  0
 23 51  1  0  0  0  0
 24 25  1  0  0  0  0
 24 53  1  0  0  0  0
 26 54  1  0  0  0  0
 26 55  1  0  0  0  0
M  ISO  2  44   2  50   2
M  END
> <PUBCHEM_COMPOUND_CID>
90476173

> <PUBCHEM_CONFORMER_RMSD>
0.8

> <PUBCHEM_CONFORMER_DIVERSEORDER>
1
3
2

> <PUBCHEM_MMFF94_PARTIAL_CHARGES>
19
1 -0.68
10 0.34
12 0.14
13 0.28
18 -0.28
19 0.14
2 -0.68
22 0.45
23 0.06
24 -0.14
25 0.49
26 0.34
3 -0.57
4 -0.68
49 0.4
5 -0.57
52 0.4
53 0.15
56 0.4

> <PUBCHEM_EFFECTIVE_ROTOR_COUNT>
3.8

> <PUBCHEM_PHARMACOPHORE_FEATURES>
12
1 1 acceptor
1 1 donor
1 2 acceptor
1 2 donor
1 3 acceptor
1 4 acceptor
1 4 donor
1 5 acceptor
5 6 7 10 14 15 rings
6 12 18 20 23 24 25 rings
6 6 7 8 9 11 13 rings
6 8 9 12 16 18 19 rings

> <PUBCHEM_HEAVY_ATOM_COUNT>
26

> <PUBCHEM_ATOM_DEF_STEREO_COUNT>
7

> <PUBCHEM_ATOM_UDEF_STEREO_COUNT>
2

> <PUBCHEM_BOND_DEF_STEREO_COUNT>
0

> <PUBCHEM_BOND_UDEF_STEREO_COUNT>
0

> <PUBCHEM_ISOTOPIC_ATOM_COUNT>
2

> <PUBCHEM_COMPONENT_COUNT>
1

> <PUBCHEM_CACTVS_TAUTO_COUNT>
15

> <PUBCHEM_CONFORMER_ID>
05648E8D00000001

> <PUBCHEM_MMFF94_ENERGY>
88.2966

> <PUBCHEM_FEATURE_SELFOVERLAP>
60.997

> <PUBCHEM_SHAPE_FINGERPRINT>
10498660 4 16128654150140688112
105312 117 16415480445670160165
10675989 125 15947894211270949852
11132069 177 17894346687531403718
11370993 144 18339922623952734666
11552529 35 18119807160382220490
11796584 16 12396289344750172592
12107183 9 18050003285939371995
12236239 1 18343011195117681927
12403814 3 16877938360775630239
12422481 6 17822846481817287096
12553582 1 17676499336238914334
12633257 1 18187356675653214048
12670546 177 12247672751691013705
12670546 56 18412824655678939981
12892183 10 18409176489157058483
12916754 54 7997962483877111651
12969540 114 14908179754930125340
13140716 1 17823142400331235556
13224815 77 17749111110091797374
13583140 156 16988558052144957678
13965767 371 18043537109817307977
14068700 675 17977655739055403639
14178342 30 18187372076846859403
14251751 18 12685095886601745624
14251764 30 12397168980202557689
14289901 80 17632581577692834087
14341114 328 18335984259370308924
14739800 52 18059278895175611128
14790565 3 17752499904240839924
15163728 17 17059506110644487033
15196674 1 17895469332090386746
15209294 21 18410295796009539777
15238133 3 18342461443868137376
15788980 27 16370718257803483142
16945 1 18186803569136990559
17349148 13 16732980946982561334
17980427 23 18343303674064615669
1813 80 16081092562746940062
19862831 5 12247683772708703946
20511986 3 18338216199191673449
20739085 24 17458642085469215956
21033648 29 16917348121526457547
22182313 1 17242160262999281422
22393880 68 11887672823583047499
23402539 116 17458610268362211622
23559900 14 18270418096062066374
23569914 2 16697185164767280424
26918003 58 15647044971751912066
2748010 2 17387686116072424831
2838139 119 17346311536405791305
296302 2 17632578257783165342
341906 21 17775564204441346409
3472631 163 17916867916006058433
3633792 109 18189035539919944847
392239 28 18265053707273191952
474 4 18335416906927332904
5104073 3 18187363207691771730
57527293 21 15792030990354076747
633830 44 18411422830193930774
7064713 232 18333731334026954056
9849439 229 17555753010262642385

> <PUBCHEM_SHAPE_MULTIPOLES>
505.72
10.44
2.27
1.82
4.25
0.17
0.48
-4.41
-4.96
-0.98
-0.7
-0.51
-0.47
-1.07

> <PUBCHEM_SHAPE_SELFOVERLAP>
1088.802

> <PUBCHEM_SHAPE_VOLUME>
273.2

> <PUBCHEM_COORDINATE_TYPE>
2
5
10

$$$$
